**********************
* Autodesk EAGLE - SPICE Model File
* Author: Yevgeniy Kolokoltsev
* Date: 19/09/2009
**********************
.SUBCKT PRESET_2 A S E
    RT S E {PRESET_2_VAL*(1-PRESET_2_SET)+.001}
    RB A S {PRESET_2_VAL*PRESET_2_SET+.001}
.ENDS PRESET_2
